lv-network-models/network_21/Feeder_3/Loads.txt
New Load.LOAD1 Phases=1 Bus1=50.1 kV=0.23 kW=1 PF=0.95 Daily=Shape_1
New Load.LOAD2 Phases=1 Bus1=120.1 kV=0.23 kW=1 PF=0.95 Daily=Shape_2
New Load.LOAD3 Phases=1 Bus1=124.2 kV=0.23 kW=1 PF=0.95 Daily=Shape_3
New Load.LOAD4 Phases=1 Bus1=143.2 kV=0.23 kW=1 PF=0.95 Daily=Shape_4
New Load.LOAD5 Phases=1 Bus1=145.1 kV=0.23 kW=1 PF=0.95 Daily=Shape_5
New Load.LOAD6 Phases=1 Bus1=153.3 kV=0.23 kW=1 PF=0.95 Daily=Shape_6
New Load.LOAD7 Phases=1 Bus1=159.3 kV=0.23 kW=1 PF=0.95 Daily=Shape_7
New Load.LOAD8 Phases=1 Bus1=230.3 kV=0.23 kW=1 PF=0.95 Daily=Shape_8
New Load.LOAD9 Phases=1 Bus1=248.2 kV=0.23 kW=1 PF=0.95 Daily=Shape_9
New Load.LOAD10 Phases=1 Bus1=264.1 kV=0.23 kW=1 PF=0.95 Daily=Shape_10
New Load.LOAD11 Phases=1 Bus1=271.2 kV=0.23 kW=1 PF=0.95 Daily=Shape_11
New Load.LOAD12 Phases=1 Bus1=390.2 kV=0.23 kW=1 PF=0.95 Daily=Shape_12
New Load.LOAD13 Phases=1 Bus1=430.1 kV=0.23 kW=1 PF=0.95 Daily=Shape_13
New Load.LOAD14 Phases=1 Bus1=431.1 kV=0.23 kW=1 PF=0.95 Daily=Shape_14
New Load.LOAD15 Phases=1 Bus1=439.3 kV=0.23 kW=1 PF=0.95 Daily=Shape_15
New Load.LOAD16 Phases=1 Bus1=440.3 kV=0.23 kW=1 PF=0.95 Daily=Shape_16
New Load.LOAD17 Phases=1 Bus1=466.3 kV=0.23 kW=1 PF=0.95 Daily=Shape_17
New Load.LOAD18 Phases=1 Bus1=481.1 kV=0.23 kW=1 PF=0.95 Daily=Shape_18
New Load.LOAD19 Phases=1 Bus1=482.1 kV=0.23 kW=1 PF=0.95 Daily=Shape_19
New Load.LOAD20 Phases=1 Bus1=507.1 kV=0.23 kW=1 PF=0.95 Daily=Shape_20
New Load.LOAD21 Phases=1 Bus1=508.1 kV=0.23 kW=1 PF=0.95 Daily=Shape_21
New Load.LOAD22 Phases=1 Bus1=523.3 kV=0.23 kW=1 PF=0.95 Daily=Shape_22
New Load.LOAD23 Phases=1 Bus1=524.3 kV=0.23 kW=1 PF=0.95 Daily=Shape_23
New Load.LOAD24 Phases=1 Bus1=536.2 kV=0.23 kW=1 PF=0.95 Daily=Shape_24
New Load.LOAD25 Phases=1 Bus1=537.2 kV=0.23 kW=1 PF=0.95 Daily=Shape_25
New Load.LOAD26 Phases=1 Bus1=548.2 kV=0.23 kW=1 PF=0.95 Daily=Shape_26
New Load.LOAD27 Phases=1 Bus1=549.2 kV=0.23 kW=1 PF=0.95 Daily=Shape_27
New Load.LOAD28 Phases=1 Bus1=551.3 kV=0.23 kW=1 PF=0.95 Daily=Shape_28
New Load.LOAD29 Phases=1 Bus1=552.3 kV=0.23 kW=1 PF=0.95 Daily=Shape_29
New Load.LOAD30 Phases=1 Bus1=576.3 kV=0.23 kW=1 PF=0.95 Daily=Shape_30
New Load.LOAD31 Phases=1 Bus1=577.3 kV=0.23 kW=1 PF=0.95 Daily=Shape_31
New Load.LOAD32 Phases=1 Bus1=578.3 kV=0.23 kW=1 PF=0.95 Daily=Shape_32
New Load.LOAD33 Phases=1 Bus1=599.1 kV=0.23 kW=1 PF=0.95 Daily=Shape_33
New Load.LOAD34 Phases=1 Bus1=609.2 kV=0.23 kW=1 PF=0.95 Daily=Shape_34
New Load.LOAD35 Phases=1 Bus1=610.2 kV=0.23 kW=1 PF=0.95 Daily=Shape_35
New Load.LOAD36 Phases=1 Bus1=631.1 kV=0.23 kW=1 PF=0.95 Daily=Shape_36
New Load.LOAD37 Phases=1 Bus1=632.1 kV=0.23 kW=1 PF=0.95 Daily=Shape_37
New Load.LOAD38 Phases=1 Bus1=643.3 kV=0.23 kW=1 PF=0.95 Daily=Shape_38
New Load.LOAD39 Phases=1 Bus1=644.3 kV=0.23 kW=1 PF=0.95 Daily=Shape_39
New Load.LOAD40 Phases=1 Bus1=694.1 kV=0.23 kW=1 PF=0.95 Daily=Shape_40
New Load.LOAD41 Phases=1 Bus1=695.1 kV=0.23 kW=1 PF=0.95 Daily=Shape_41
New Load.LOAD42 Phases=1 Bus1=722.1 kV=0.23 kW=1 PF=0.95 Daily=Shape_42
New Load.LOAD43 Phases=1 Bus1=723.1 kV=0.23 kW=1 PF=0.95 Daily=Shape_43
New Load.LOAD44 Phases=1 Bus1=734.3 kV=0.23 kW=1 PF=0.95 Daily=Shape_44
New Load.LOAD45 Phases=1 Bus1=735.3 kV=0.23 kW=1 PF=0.95 Daily=Shape_45
New Load.LOAD46 Phases=1 Bus1=756.3 kV=0.23 kW=1 PF=0.95 Daily=Shape_46
New Load.LOAD47 Phases=1 Bus1=757.3 kV=0.23 kW=1 PF=0.95 Daily=Shape_47
New Load.LOAD48 Phases=1 Bus1=760.1 kV=0.23 kW=1 PF=0.95 Daily=Shape_48
New Load.LOAD49 Phases=1 Bus1=761.1 kV=0.23 kW=1 PF=0.95 Daily=Shape_49
New Load.LOAD50 Phases=1 Bus1=765.1 kV=0.23 kW=1 PF=0.95 Daily=Shape_50
New Load.LOAD51 Phases=1 Bus1=766.1 kV=0.23 kW=1 PF=0.95 Daily=Shape_51
New Load.LOAD52 Phases=1 Bus1=770.3 kV=0.23 kW=1 PF=0.95 Daily=Shape_52
New Load.LOAD53 Phases=1 Bus1=771.3 kV=0.23 kW=1 PF=0.95 Daily=Shape_53
New Load.LOAD54 Phases=1 Bus1=772.2 kV=0.23 kW=1 PF=0.95 Daily=Shape_54
New Load.LOAD55 Phases=1 Bus1=773.2 kV=0.23 kW=1 PF=0.95 Daily=Shape_55
New Load.LOAD56 Phases=1 Bus1=776.2 kV=0.23 kW=1 PF=0.95 Daily=Shape_56
New Load.LOAD57 Phases=1 Bus1=777.2 kV=0.23 kW=1 PF=0.95 Daily=Shape_57
New Load.LOAD58 Phases=1 Bus1=782.3 kV=0.23 kW=1 PF=0.95 Daily=Shape_58
New Load.LOAD59 Phases=1 Bus1=783.3 kV=0.23 kW=1 PF=0.95 Daily=Shape_59
New Load.LOAD60 Phases=1 Bus1=834.2 kV=0.23 kW=1 PF=0.95 Daily=Shape_60
New Load.LOAD61 Phases=1 Bus1=835.2 kV=0.23 kW=1 PF=0.95 Daily=Shape_61
New Load.LOAD62 Phases=1 Bus1=836.3 kV=0.23 kW=1 PF=0.95 Daily=Shape_62
New Load.LOAD63 Phases=1 Bus1=837.3 kV=0.23 kW=1 PF=0.95 Daily=Shape_63
New Load.LOAD64 Phases=1 Bus1=839.2 kV=0.23 kW=1 PF=0.95 Daily=Shape_64
New Load.LOAD65 Phases=1 Bus1=840.2 kV=0.23 kW=1 PF=0.95 Daily=Shape_65
New Load.LOAD66 Phases=1 Bus1=842.1 kV=0.23 kW=1 PF=0.95 Daily=Shape_66
New Load.LOAD67 Phases=1 Bus1=843.1 kV=0.23 kW=1 PF=0.95 Daily=Shape_67
